14
core bodipy
 N         0.03242063   -1.36372305    0.        
 B         1.36624678   -2.19169023    0.        
 F         1.41123252   -2.99753338    1.13143603
 F         1.42355864   -3.00954444   -1.08123564
 N         2.58553299   -1.20265884    0.        
 C         3.89154996   -1.49546457    0.        
 C         4.65183001   -0.26992514    0.        
 C         3.74883607    0.77595416    0.        
 C         2.42679837    0.2052071     0.        
 C         1.1772755     0.80619311    0.        
 C         0.01313345    0.05292471    0.        
 C        -1.37006866    0.45307574    0.        
 C        -2.13460933   -0.69795656    0.        
 C        -1.22649793   -1.81828619    0.        
1
 group 0
H    0.0    0.0    0.0
4
 group 1
C    0.0    0.0    0.0
H    0.018731000000000053    -0.374895    -1.040129
H    0.911764    -0.375591    0.490352
H    -0.8529249999999999    -0.4866349999999997    0.498528
3
 group 2
N    0.0    0.0    0.0
H    -0.819693    -0.5754649999999999    0.001625
H    0.8853589999999999    -0.468121    -0.007259999999999999
2
 group 3
O    0.0    0.0    0.0
H    0.9253269999999999    -0.3807360000000002    -0.0067150000000000005
1
 group 4
F    0.0    0.0    0.0
3
 group 5
C    0.0    0.0    0.0
C    0.0761719999999999    -1.2101650000000004    -0.005949000000000001
H    0.1409809999999999    -2.2403790000000003    -0.011011
5
 group 6
C    0.0    0.0    0.0
C    -0.5268379999999999    -0.7408510000000001    -0.9755429999999999
H    0.562693    -0.43409699999999996    0.8318300000000001
H    -1.0754730000000001    -0.3280560000000001    -1.8131700000000002
H    -0.43863399999999997    -1.817945    -1.0175830000000001
2
 group 7
C    0.0    0.0    0.0
N    0.07267899999999994    -1.1542560000000002    -0.005408
4
 group 8
C    0.0    0.0    0.0
N    1.105464    -0.645419    -0.010473
H    -1.0033949999999998    -0.4607939999999999    0.005593
H    1.11121    -1.6537419999999998    -0.014304
3
 group 9
C    0.0    0.0    0.0
O    1.050867    -0.5864190000000002    -0.00952
H    -0.9552240000000001    -0.5414349999999999    0.003591
7
 group 10
C    0.0    0.0    0.0
C    0.02144199999999996    -0.461595    -1.4595120000000001
H    0.9084729999999999    -0.35808799999999996    0.529204
H    -0.8506640000000001    -0.46901199999999976    0.5385
H    0.09049599999999991    -1.5534519999999996    -1.5281280000000002
H    -0.8868060000000002    -0.15220199999999995    -1.9934890000000003
H    0.8774489999999999    -0.040127000000000024    -2.003012
6
 group 11
C    0.0    0.0    0.0
N    -0.108012    -0.4520819999999999    -1.396934
H    0.955661    -0.38642699999999985    0.426711
H    -0.807606    -0.49066699999999974    0.5953539999999999
H    -0.978812    -0.16568999999999967    -1.818477
H    0.6554679999999999    -0.11421099999999962    -1.962995
4
 group 12
C    0.0    0.0    0.0
F    0.8347760000000002    -0.4080840000000001    -0.989446
H    0.39513600000000015    -0.35584099999999985    0.987137
H    -0.9945709999999999    -0.48504700000000023    -0.16143200000000002
6
 group 13
N    0.0    0.0    0.0
C    1.18136    -0.8548639999999996    -0.010704
H    -0.8928189999999998    -0.4845699999999997    0.002443
H    1.808401    -0.6844099999999997    0.8875000000000001
H    0.8805499999999999    -1.9180450000000002    -0.013649000000000001
H    1.797854    -0.676399    -0.914628
5
 group 14
C    0.0    0.0    0.0
O    1.180204    -0.4410919999999998    0.6258919999999999
H    -0.87005    -0.43169900000000005    0.5349889999999999
H    0.06295399999999995    -0.45867199999999997    -1.014546
H    1.248144    -0.07537100000000008    1.536057
5
 group 15
O    0.0    0.0    0.0
C    1.159439    -0.8258759999999996    -0.009186
H    1.7435530000000001    -0.665832    -0.921855
H    1.753146    -0.6726919999999996    0.89847
H    0.711068    -1.8318179999999997    -0.010568999999999999
6
 group 16
C    0.0    0.0    0.0
C    0.02434500000000006    -0.530923    -1.332684
C    0.044540000000000024    -0.9704859999999997    -2.459855
H    0.9100720000000001    -0.3180349999999996    0.571511
H    -0.85534    -0.42886500000000005    0.58351
H    0.06169200000000008    -1.342886    -3.419038
6
 group 17
C    0.0    0.0    0.0
C    0.07722699999999993    -1.2129310000000002    -0.006523000000000001
C    0.16684599999999994    -2.6341740000000002    -0.014262
H    1.215922    -2.988846    -0.021453
H    -0.3175990000000002    -3.085695    0.874359
H    -0.3266850000000001    -3.0765379999999998    -0.902494
8
 group 18
C    0.0    0.0    0.0
C    -0.6499330000000001    -0.7250709999999998    -0.9207379999999998
C    -0.523382    -2.2001199999999996    -1.0243149999999999
H    0.672243    -0.45352599999999965    0.732056
H    -1.301397    -0.2583319999999998    -1.665632
H    0.077511    -2.6439919999999995    -0.21821799999999997
H    -1.5096489999999998    -2.6896400000000003    -0.9978129999999998
H    -0.050157999999999925    -2.4908699999999997    -1.976331
8
 group 19
C    0.0    0.0    0.0
C    -0.091893    -0.49734100000000003    -1.412849
C    0.7634709999999999    -1.380741    -1.923273
H    0.9337769999999999    -0.346333    0.49532799999999994
H    -0.820602    -0.45047799999999993    0.606533
H    -0.9180969999999999    -0.08141500000000024    -1.991441
H    0.6979979999999999    -1.7489560000000002    -2.936799
H    1.5936299999999999    -1.8065669999999998    -1.382023
5
 group 20
C    0.0    0.0    0.0
C    0.141297    -0.5746090000000001    -1.31826
N    0.25361100000000003    -1.038418    -2.370753
H    0.862967    -0.29578099999999985    0.654394
H    -0.897049    -0.4276819999999999    0.520985
6
 group 21
C    0.0    0.0    0.0
C    0.19781099999999996    -0.4950930000000002    -1.422246
O    0.25523799999999996    -1.6739570000000001    -1.650274
H    0.8375239999999999    -0.3759170000000003    0.63491
H    -0.896487    -0.49807400000000035    0.437554
H    0.28552599999999995    0.25813299999999995    -2.2134889999999996
6
 group 22
C    0.0    0.0    0.0
C    0.02040299999999995    -0.46537499999999987    -1.4175609999999998
O    0.052270999999999956    -0.727468    0.953403
H    0.876514    -0.04802200000000001    -1.9704620000000002
H    0.088777    -1.5630450000000002    -1.4830269999999999
H    -0.887824    -0.15869500000000025    -1.9596630000000002
6
 group 23
N    0.0    0.0    0.0
C    1.128743    -0.6339000000000001    -0.594634
N    0.9986950000000001    -1.898523    -0.7489530000000001
H    -0.857129    -0.5632410000000001    0.05087599999999992
H    1.945794    0.04576199999999986    -0.887112
H    1.697113    -2.463539    -1.194718
6
 group 24
C    0.0    0.0    0.0
N    0.645121    -0.3795219999999997    1.179748
N    -0.4612259999999999    -0.7807189999999999    -0.908313
H    0.89522    0.3028130000000002    1.8655709999999999
H    0.617535    -1.327187    1.48758
H    -0.3990879999999999    -1.779039    -0.842433
6
 group 25
N    0.0    0.0    0.0
C    0.831769    -0.715484    0.720103
N    0.881715    -2.0567569999999997    0.45902600000000005
H    1.4668510000000001    -0.3413870000000001    1.54657
H    1.30992    -2.6939689999999996    1.093794
H    0.32121900000000003    -2.4477239999999996    -0.278759
5
 group 26
N    0.0    0.0    0.0
C    0.946316    -0.7762009999999999    -0.708593
O    1.898503    -0.28719800000000006    -1.251152
H    -0.8571140000000002    -0.46818800000000005    0.304736
H    0.7094900000000001    -1.8518059999999998    -0.7098990000000001
5
 group 27
C    0.0    0.0    0.0
N    -0.5295510000000001    -0.5082610000000001    -1.1648169999999998
O    0.5399079999999999    -0.713098    0.815141
H    -0.9770340000000002    0.06496299999999966    -1.84851
H    -0.4643400000000002    -1.489481    -1.357749
4
 group 28
O    0.0    0.0    0.0
C    0.9881059999999999    -0.6362920000000001    0.7786080000000002
O    1.041221    -1.8152809999999997    0.6368660000000002
H    1.537685    0.027702000000000115    1.442231
4
 group 29
C    0.0    0.0    0.0
O    1.2611839999999999    -0.4896480000000003    -0.009269
O    -0.9428049999999999    -0.7471260000000002    0.001346
H    1.290829    -1.484286    -0.014433
10
 group 30
C    0.0    0.0    0.0
C    0.029308999999999807    -0.47107100000000024    -1.4660220000000002
C    0.14319099999999985    -1.9907450000000004    -1.5381870000000002
H    0.9057749999999999    -0.35812599999999994    0.53257
H    -0.8519380000000001    -0.47075999999999985    0.533541
H    -0.8847400000000001    -0.12889399999999984    -1.991126
H    0.8778289999999999    0.003038999999999792    -1.998647
H    -0.7032170000000002    -2.485158    -1.0480310000000002
H    0.16259599999999985    -2.3353780000000004    -2.5794170000000003
H    1.0603379999999998    -2.3523829999999997    -1.0594050000000002
10
 group 31
C    0.0    0.0    0.0
C    0.6788350000000001    -0.5005540000000002    -1.278435
C    0.6929160000000001    -0.5142929999999999    1.265369
H    -1.0470229999999998    -0.4100380000000001    0.0035689999999999997
H    1.732805    -0.20765600000000006    -1.336927
H    0.641049    -1.5948129999999998    -1.33846
H    0.183504    -0.10350700000000002    -2.1742310000000002
H    0.20755600000000007    -0.12697199999999986    2.170827
H    0.6557360000000001    -1.609153    1.3139939999999999
H    1.7474820000000002    -0.22197500000000003    1.315345
9
 group 32
C    0.0    0.0    0.0
C    0.15965200000000002    -0.448588    -1.472777
N    0.45061300000000004    -1.8960110000000001    -1.471153
H    0.8685750000000001    -0.37459900000000035    0.5891679999999999
H    -0.880663    -0.4932810000000001    0.457528
H    -0.749363    -0.17888000000000037    -2.051657
H    1.016778    0.0890799999999996    -1.938668
H    -0.36223399999999994    -2.44753    -1.2558310000000001
H    0.8376920000000001    -2.205624    -2.346182
9
 group 33
C    0.0    0.0    0.0
C    0.3180359999999999    -0.4211870000000002    -1.4429040000000002
N    1.061164    -0.497684    0.906397
H    -1.003145    -0.41916600000000015    0.290352
H    1.332128    -0.10859600000000036    -1.7315630000000002
H    0.2638419999999999    -1.5080270000000002    -1.565266
H    -0.3824620000000001    0.033032999999999646    -2.154763
H    0.9088249999999999    -0.212075    1.860958
H    1.150631    -1.4992510000000001    0.862816
9
 group 34
N    0.0    0.0    0.0
C    1.188501    -0.8639579999999998    -0.00961
C    0.759143    -2.329628    -0.010027
H    -0.8946999999999998    -0.485344    0.002942
H    1.803117    -0.6393589999999998    -0.916473
H    1.8148810000000002    -0.643408    0.89019
H    0.17500100000000007    -2.591574    0.8816860000000001
H    0.16244999999999998    -2.5875049999999997    -0.8945709999999999
H    1.638239    -2.989018    -0.017763
8
 group 35
C    0.0    0.0    0.0
C    0.08360099999999993    -0.44670900000000024    -1.469918
O    0.22149399999999997    -1.8555970000000004    -1.389092
H    0.8862249999999999    -0.3849610000000001    0.552559
H    -0.863926    -0.499965    0.490215
H    -0.8368360000000001    -0.19863500000000034    -2.028241
H    0.9659319999999999    -0.019937000000000094    -1.980217
H    0.2832779999999999    -2.2431860000000006    -2.283465
4
 group 36
C    0.0    0.0    0.0
F    0.7208480000000002    -0.41432599999999997    -1.0571139999999999
F    0.7329430000000001    -0.42540500000000003    1.044308
H    -1.0135549999999998    -0.506106    0.0031709999999999998
8
 group 37
C    0.0    0.0    0.0
C    0.48389100000000007    -0.49236800000000036    -1.360713
O    0.8042630000000001    -0.47126899999999994    1.046988
H    -0.9848729999999999    -0.46160900000000016    0.271459
H    1.4295280000000001    -0.029433000000000042    -1.666023
H    0.6426470000000001    -1.579796    -1.3390490000000002
H    -0.24881599999999993    -0.2803840000000002    -2.14974
H    1.731503    -0.16016699999999995    0.979735
8
 group 38
O    0.0    0.0    0.0
C    1.167158    -0.8430849999999999    -0.011338
C    0.5633619999999999    -2.2365070000000005    -0.015966
H    1.750048    -0.6294279999999999    -0.9251919999999999
H    1.759963    -0.639923    0.898522
H    1.346349    -3.0046530000000002    -0.024077
H    -0.0652950000000001    -2.4082160000000004    0.869483
H    -0.07413000000000003    -2.3987040000000004    -0.8968579999999999
9
 group 39
C    0.0    0.0    0.0
N    0.824054    -0.44544300000000003    -1.154715
C    0.349696    -1.7353639999999997    -1.691249
H    0.5228389999999999    -0.36066900000000013    0.924485
H    -1.0066950000000001    -0.473703    0.016498000000000006
H    0.833558    0.26696699999999973    -1.886675
H    0.414465    -2.5073620000000005    -0.906276
H    -0.677278    -1.7197589999999998    -2.085855
H    1.030694    -2.0420170000000004    -2.504724
9
 group 40
N    0.0    0.0    0.0
C    -1.06834    -0.8686370000000001    -0.49427600000000005
C    1.169842    -0.7276439999999997    0.492239
H    -0.6373470000000001    -1.7534999999999998    -0.999712
H    -1.7154319999999998    -1.2220329999999997    0.330032
H    -1.6939480000000002    -0.34742099999999976    -1.246997
H    0.854061    -1.6597279999999999    0.99795
H    1.85495    -0.9967129999999997    -0.333147
H    1.726296    -0.13223200000000013    1.244247
3
 group 41
N    0.0    0.0    0.0
O    -1.0345670000000002    -0.6399759999999999    0.0018780000000000001
O    1.106652    -0.5051249999999996    -0.007781999999999999
8
 group 42
C    0.0    0.0    0.0
O    1.2351729999999999    -0.3750049999999998    0.592314
C    1.3312659999999998    -1.7709509999999997    0.81
H    -0.8389040000000001    -0.43600700000000003    0.579901
H    -0.04055300000000006    -0.384744    -1.042242
H    2.3277029999999996    -1.8752169999999997    1.260584
H    0.564726    -2.114857    1.511559
H    1.280926    -2.3233960000000002    -0.132725
8
 group 43
C    0.0    0.0    0.0
C    -0.7128589999999999    -0.7529369999999997    -1.106415
C    0.7891420000000001    -0.6584979999999998    -1.114828
H    0.034129999999999994    -0.45462899999999973    1.004441
H    -1.199009    -1.6992319999999999    -0.8839920000000001
H    -1.290239    -0.20014399999999988    -1.846502
H    1.284451    -0.03817499999999985    -1.8608609999999999
H    1.392379    -1.5363669999999998    -0.898638
7
 group 44
C    0.0    0.0    0.0
C    -0.6422260000000002    -0.7122070000000003    -1.175408
N    0.8242429999999998    -0.6389940000000003    -1.048339
H    0.045532999999999824    -0.501763    0.986705
H    -1.074169    -1.7089090000000002    -1.043673
H    -1.173625    -0.14519700000000002    -1.94027
H    1.3048549999999999    -0.011953000000000102    -1.6858080000000002
7
 group 45
N    0.0    0.0    0.0
C    -0.707538    -0.910892    -0.905857
C    0.8093140000000001    -0.8163650000000002    -0.910694
H    -1.2091089999999998    -1.75928    -0.42777699999999996
H    -1.289203    -0.5197400000000001    -1.7443719999999998
H    1.332722    -0.3565640000000001    -1.752736
H    1.4150960000000001    -1.5958450000000002    -0.435955
6
 group 46
C    0.0    0.0    0.0
C    0.03811600000000004    -0.7138180000000003    -1.309445
O    1.198202    -0.6096920000000003    -0.48213
H    -0.4234420000000001    -0.484194    0.893005
H    -0.374657    -1.7152960000000004    -1.410576
H    0.08646899999999991    -0.159551    -2.246319